; Filename: nodes_and_inps/10x10.inp
; WNTR: 1.4.0
; Created: 2025-12-05 13:07:25
[TITLE]
10x10 Grid Network with Central Reservoir R1 (replacing J55)

[JUNCTIONS]
;ID                      Elevation       Demand             Pattern 
 J1                       0              30.0               1           ;
 J2                       0              30.0               2           ;
 J3                       0              30.0               3           ;
 J4                       0              30.0               4           ;
 J5                       0              30.0               1           ;
 J6                       0              30.0               2           ;
 J7                       0              30.0               3           ;
 J8                       0              30.0               4           ;
 J9                       0              30.0               1           ;
 J10                      0              30.0               2           ;
 J11                      0              30.0               3           ;
 J12                      0              30.0               4           ;
 J13                      0              30.0               1           ;
 J14                      0              30.0               2           ;
 J15                      0              30.0               3           ;
 J16                      0              30.0               4           ;
 J17                      0              30.0               1           ;
 J18                      0              30.0               2           ;
 J19                      0              30.0               3           ;
 J20                      0              30.0               4           ;
 J21                      0              30.0               1           ;
 J22                      0              30.0               2           ;
 J23                      0              30.0               1           ;
 J24                      0              30.0               4           ;
 J25                      0              30.0               3           ;
 J26                      0              30.0               2           ;
 J27                      0              30.0               1           ;
 J28                      0              30.0               1           ;
 J29                      0              30.0               2           ;
 J30                      0              30.0               3           ;
 J31                      0              30.0               4           ;
 J32                      0              30.0               1           ;
 J33                      0              30.0               2           ;
 J34                      0              30.0               3           ;
 J35                      0              30.0               4           ;
 J36                      0              30.0               1           ;
 J37                      0              30.0               2           ;
 J38                      0              30.0               3           ;
 J39                      0              30.0               4           ;
 J40                      0              30.0               1           ;
 J41                      0              30.0               2           ;
 J42                      0              30.0               3           ;
 J43                      0              30.0               4           ;
 J44                      0              30.0               1           ;
 J45                      0              30.0               2           ;
 J46                      0              30.0               3           ;
 J47                      0              30.0               4           ;
 J48                      0              30.0               1           ;
 J49                      0              30.0               2           ;
 J50                      0              30.0               1           ;
 J51                      0              30.0               4           ;
 J52                      0              30.0               3           ;
 J53                      0              30.0               2           ;
 J54                      0              30.0               1           ;
 J56                      0              30.0               1           ;
 J57                      0              30.0               2           ;
 J58                      0              30.0               3           ;
 J59                      0              30.0               4           ;
 J60                      0              30.0               1           ;
 J61                      0              30.0               2           ;
 J62                      0              30.0               3           ;
 J63                      0              30.0               4           ;
 J64                      0              30.0               1           ;
 J65                      0              30.0               2           ;
 J66                      0              30.0               3           ;
 J67                      0              30.0               4           ;
 J68                      0              30.0               1           ;
 J69                      0              30.0               2           ;
 J70                      0              30.0               3           ;
 J71                      0              30.0               4           ;
 J72                      0              30.0               1           ;
 J73                      0              30.0               2           ;
 J74                      0              30.0               3           ;
 J75                      0              30.0               4           ;
 J76                      0              30.0               1           ;
 J77                      0              30.0               2           ;
 J78                      0              30.0               1           ;
 J79                      0              30.0               4           ;
 J80                      0              30.0               3           ;
 J81                      0              30.0               2           ;
 J82                      0              30.0               1           ;
 J83                      0              30.0               1           ;
 J84                      0              30.0               2           ;
 J85                      0              30.0               3           ;
 J86                      0              30.0               4           ;
 J87                      0              30.0               1           ;
 J88                      0              30.0               2           ;
 J89                      0              30.0               3           ;
 J90                      0              30.0               4           ;
 J91                      0              30.0               1           ;
 J92                      0              30.0               2           ;
 J93                      0              30.0               3           ;
 J94                      0              30.0               4           ;
 J95                      0              30.0               1           ;
 J96                      0              30.0               2           ;
 J97                      0              30.0               3           ;
 J98                      0              30.0               4           ;
 J99                      0              30.0               1           ;
 J100                     0              30.0               2           ;

[RESERVOIRS]
;ID                                   Head                  Pattern
 R1                               100                            ;

[TANKS]
;ID                              Elevation           Init Level            Min Level            Max Level             Diameter           Min Volume Volume Curve         Overflow            

[PIPES]
;ID                   Node1                Node2                              Length             Diameter            Roughness           Minor Loss               Status
 P1_2                 J1                   J2                                25             150             100               0                 Open   ;
 P1_11                J1                   J11                               25             150             100               0                 Open   ;
 P2_3                 J2                   J3                                25             150             100               0                 Open   ;
 P12_2                J12                  J2                                25             150             100               0                 Open   ;
 P3_4                 J3                   J4                                25             150             100               0                 Open   ;
 P13_3                J13                  J3                                25             150             100               0                 Open   ;
 P4_5                 J4                   J5                                25             150             100               0                 Open   ;
 P5_6                 J5                   J6                                25             150             100               0                 Open   ;
 P15_5                J15                  J5                                25             150             100               0                 Open   ;
 P6_7                 J6                   J7                                25             150             100               0                 Open   ;
 P16_6                J16                  J6                                25             150             100               0                 Open   ;
 P7_8                 J7                   J8                                25             150             100               0                 Open   ;
 P8_9                 J8                   J9                                25             150             100               0                 Open   ;
 P10_9                J10                  J9                                25             150             100               0                 Open   ;
 P10_20               J10                  J20                               25             150             100               0                 Open   ;
 P11_12               J11                  J12                               25             150             100               0                 Open   ;
 P11_21               J11                  J21                               25             150             100               0                 Open   ;
 P12_13               J12                  J13                               25             150             100               0                 Open   ;
 P12_22               J12                  J22                               25             150             100               0                 Open   ;
 P13_23               J13                  J23                               25             150             100               0                 Open   ;
 P14_15               J14                  J15                               25             150             100               0                 Open   ;
 P14_24               J14                  J24                               25             150             100               0                 Open   ;
 P15_25               J15                  J25                               25             150             100               0                 Open   ;
 P16_17               J16                  J17                               25             150             100               0                 Open   ;
 P17_18               J17                  J18                               25             150             100               0                 Open   ;
 P17_27               J17                  J27                               25             150             100               0                 Open   ;
 P19_20               J19                  J20                               25             150             100               0                 Open   ;
 P19_29               J19                  J29                               25             150             100               0                 Open   ;
 P20_30               J20                  J30                               25             150             100               0                 Open   ;
 P21_22               J21                  J22                               25             150             100               0                 Open   ;
 P22_23               J22                  J23                               25             150             100               0                 Open   ;
 P22_32               J22                  J32                               25             150             100               0                 Open   ;
 P23_24               J23                  J24                               25             150             100               0                 Open   ;
 P23_33               J23                  J33                               25             150             100               0                 Open   ;
 P24_25               J24                  J25                               25             150             100               0                 Open   ;
 P24_34               J24                  J34                               25             150             100               0                 Open   ;
 P25_26               J25                  J26                               25             150             100               0                 Open   ;
 P25_35               J25                  J35                               25             150             100               0                 Open   ;
 P26_27               J26                  J27                               25             150             100               0                 Open   ;
 P26_36               J26                  J36                               25             150             100               0                 Open   ;
 P27_28               J27                  J28                               25             150             100               0                 Open   ;
 P28_29               J28                  J29                               25             150             100               0                 Open   ;
 P28_38               J28                  J38                               25             150             100               0                 Open   ;
 P29_30               J29                  J30                               25             150             100               0                 Open   ;
 P29_39               J29                  J39                               25             150             100               0                 Open   ;
 P30_40               J30                  J40                               25             150             100               0                 Open   ;
 P31_32               J31                  J32                               25             150             100               0                 Open   ;
 P31_41               J31                  J41                               25             150             100               0                 Open   ;
 P32_33               J32                  J33                               25             150             100               0                 Open   ;
 P32_42               J32                  J42                               25             150             100               0                 Open   ;
 P33_34               J33                  J34                               25             150             100               0                 Open   ;
 P33_43               J33                  J43                               25             150             100               0                 Open   ;
 P34_35               J34                  J35                               25             150             100               0                 Open   ;
 P34_44               J34                  J44                               25             150             100               0                 Open   ;
 P35_36               J35                  J36                               25             150             100               0                 Open   ;
 P36_37               J36                  J37                               25             150             100               0                 Open   ;
 P36_46               J36                  J46                               25             150             100               0                 Open   ;
 P37_38               J37                  J38                               25             150             100               0                 Open   ;
 P37_47               J37                  J47                               25             150             100               0                 Open   ;
 P38_39               J38                  J39                               25             150             100               0                 Open   ;
 P38_48               J38                  J48                               25             150             100               0                 Open   ;
 P39_40               J39                  J40                               25             150             100               0                 Open   ;
 P39_49               J39                  J49                               25             150             100               0                 Open   ;
 P40_50               J40                  J50                               25             150             100               0                 Open   ;
 P41_42               J41                  J42                               25             150             100               0                 Open   ;
 P41_51               J41                  J51                               25             150             100               0                 Open   ;
 P42_43               J42                  J43                               25             150             100               0                 Open   ;
 P42_52               J42                  J52                               25             150             100               0                 Open   ;
 P43_44               J43                  J44                               25             150             100               0                 Open   ;
 P43_53               J43                  J53                               25             150             100               0                 Open   ;
 P44_45               J44                  J45                               25             150             100               0                 Open   ;
 P44_54               J44                  J54                               25             150             100               0                 Open   ;
 P45_46               J45                  J46                               25             150             100               0                 Open   ;
 P46_47               J46                  J47                               25             150             100               0                 Open   ;
 P46_56               J46                  J56                               25             150             100               0                 Open   ;
 P47_48               J47                  J48                               25             150             100               0                 Open   ;
 P47_57               J47                  J57                               25             150             100               0                 Open   ;
 P48_49               J48                  J49                               25             150             100               0                 Open   ;
 P49_50               J49                  J50                               25             150             100               0                 Open   ;
 P49_59               J49                  J59                               25             150             100               0                 Open   ;
 P50_60               J50                  J60                               25             150             100               0                 Open   ;
 P51_52               J51                  J52                               25             150             100               0                 Open   ;
 P51_61               J51                  J61                               25             150             100               0                 Open   ;
 P52_53               J52                  J53                               25             150             100               0                 Open   ;
 P53_63               J53                  J63                               25             150             100               0                 Open   ;
 P54_64               J54                  J64                               25             150             100               0                 Open   ;
 P56_57               J56                  J57                               25             150             100               0                 Open   ;
 P56_66               J56                  J66                               25             150             100               0                 Open   ;
 P56_R1               J56                  R1                                25             150             100               0                 Open   ;
 P57_58               J57                  J58                               25             150             100               0                 Open   ;
 P57_67               J57                  J67                               25             150             100               0                 Open   ;
 P58_59               J58                  J59                               25             150             100               0                 Open   ;
 P58_68               J58                  J68                               25             150             100               0                 Open   ;
 P59_60               J59                  J60                               25             150             100               0                 Open   ;
 P59_69               J59                  J69                               25             150             100               0                 Open   ;
 P60_70               J60                  J70                               25             150             100               0                 Open   ;
 P61_62               J61                  J62                               25             150             100               0                 Open   ;
 P61_71               J61                  J71                               25             150             100               0                 Open   ;
 P62_63               J62                  J63                               25             150             100               0                 Open   ;
 P62_72               J62                  J72                               25             150             100               0                 Open   ;
 P63_64               J63                  J64                               25             150             100               0                 Open   ;
 P64_65               J64                  J65                               25             150             100               0                 Open   ;
 P64_74               J64                  J74                               25             150             100               0                 Open   ;
 P65_R1               J65                  R1                                25             150             100               0                 Open   ;
 P66_76               J66                  J76                               25             150             100               0                 Open   ;
 P67_68               J67                  J68                               25             150             100               0                 Open   ;
 P67_77               J67                  J77                               25             150             100               0                 Open   ;
 P68_69               J68                  J69                               25             150             100               0                 Open   ;
 P68_78               J68                  J78                               25             150             100               0                 Open   ;
 P69_70               J69                  J70                               25             150             100               0                 Open   ;
 P69_79               J69                  J79                               25             150             100               0                 Open   ;
 P70_80               J70                  J80                               25             150             100               0                 Open   ;
 P71_72               J71                  J72                               25             150             100               0                 Open   ;
 P71_81               J71                  J81                               25             150             100               0                 Open   ;
 P72_73               J72                  J73                               25             150             100               0                 Open   ;
 P72_82               J72                  J82                               25             150             100               0                 Open   ;
 P74_75               J74                  J75                               25             150             100               0                 Open   ;
 P74_84               J74                  J84                               25             150             100               0                 Open   ;
 P75_76               J75                  J76                               25             150             100               0                 Open   ;
 P75_85               J75                  J85                               25             150             100               0                 Open   ;
 P76_86               J76                  J86                               25             150             100               0                 Open   ;
 P77_78               J77                  J78                               25             150             100               0                 Open   ;
 P77_87               J77                  J87                               25             150             100               0                 Open   ;
 P78_79               J78                  J79                               25             150             100               0                 Open   ;
 P79_80               J79                  J80                               25             150             100               0                 Open   ;
 P79_89               J79                  J89                               25             150             100               0                 Open   ;
 P81_82               J81                  J82                               25             150             100               0                 Open   ;
 P81_91               J81                  J91                               25             150             100               0                 Open   ;
 P82_83               J82                  J83                               25             150             100               0                 Open   ;
 P83_84               J83                  J84                               25             150             100               0                 Open   ;
 P83_93               J83                  J93                               25             150             100               0                 Open   ;
 P84_85               J84                  J85                               25             150             100               0                 Open   ;
 P84_94               J84                  J94                               25             150             100               0                 Open   ;
 P85_86               J85                  J86                               25             150             100               0                 Open   ;
 P86_87               J86                  J87                               25             150             100               0                 Open   ;
 P86_96               J86                  J96                               25             150             100               0                 Open   ;
 P87_88               J87                  J88                               25             150             100               0                 Open   ;
 P88_89               J88                  J89                               25             150             100               0                 Open   ;
 P88_98               J88                  J98                               25             150             100               0                 Open   ;
 P89_90               J89                  J90                               25             150             100               0                 Open   ;
 P89_99               J89                  J99                               25             150             100               0                 Open   ;
 P100_90              J100                 J90                               25             150             100               0                 Open   ;
 P92_93               J92                  J93                               25             150             100               0                 Open   ;